// Generated for: spectre
// Generated on: May 16 13:11:49 2016
// Design library name: soc_no_opt_16may
// Design cell name: soc_top_inst
// Design view name: schematic
simulator lang=spectre
global 0 vdd gnds vdds VDD GND
//include "models.scs"
include "/home/aasmundo/newWorkdir/riscvsubthreshold/modules/1_corners.scs"

// Library name: S28_coreLVTPB4_AFBB
// Cell name: LVT_NADN2x1_PB4_AFBB
// View name: schematic
subckt LVT_NADN2x1_PB4_AFBB A B Z inh_gnd inh_gnds inh_vdd inh_vdds
    N1 (net10 A inh_gnd inh_gnds) lvtnfet w=400n l=30.00n as=39.2f \
        ad=39.2f nf=(1)*(1) sa=1.8u sb=1.8u sd=96n ptwell=0 par=1 p_la=4n \
        ngcon=1 nsig_delvto_uo1=0 nsig_delvto_uo2=0 soa=1 swshe=0 swacc=-1 \
        swrg=-1 swrsub=-1 mismatch=1 m=1
    N0 (Z B net10 inh_gnds) lvtnfet w=400n l=30.00n as=39.2f ad=39.2f \
        nf=(1)*(1) sa=1.8u sb=1.8u sd=96n ptwell=0 par=1 p_la=4n ngcon=1 \
        nsig_delvto_uo1=0 nsig_delvto_uo2=0 soa=1 swshe=0 swacc=-1 swrg=-1 \
        swrsub=-1 mismatch=1 m=1
    P0 (Z A inh_vdd inh_vdds) lvtpfet w=260n l=30.00n as=25.48f ad=25.48f \
        nf=(1)*(1) sa=1.8u sb=1.8u sd=96n ptwell=0 par=1 p_la=4n ngcon=1 \
        nsig_delvto_uo1=0 nsig_delvto_uo2=0 soa=1 swshe=0 swacc=-1 swrg=-1 \
        swrsub=-1 mismatch=1 m=1
    P1 (Z B inh_vdd inh_vdds) lvtpfet w=260n l=30n as=25.48f ad=25.48f \
        nf=(1)*(1) sa=1.8u sb=1.8u sd=96n ptwell=0 par=1 p_la=4n ngcon=1 \
        nsig_delvto_uo1=0 nsig_delvto_uo2=0 soa=1 swshe=0 swacc=-1 swrg=-1 \
        swrsub=-1 mismatch=1 m=1
ends LVT_NADN2x1_PB4_AFBB
// End of subcircuit definition.

// Library name: S28_coreLVTPB4_AFBB
// Cell name: LVT_invx2_PB4_AFBB
// View name: schematic
subckt LVT_invx2_PB4_AFBB in out inh_gnd inh_gnds inh_vdd inh_vdds
    N1 (out in inh_gnd inh_gnds) lvtnfet w=400n l=30.00n as=39.2f ad=28.0f \
        nf=(2)*(1) sa=1.8u sb=1.8u sd=96n ptwell=0 par=1 p_la=4n ngcon=1 \
        nsig_delvto_uo1=0 nsig_delvto_uo2=0 soa=1 swshe=0 swacc=0 swrg=0 \
        swrsub=0 mismatch=1 m=1
    P1 (out in inh_vdd inh_vdds) lvtpfet w=550n l=30.00n as=53.9f ad=38.5f \
        nf=(2)*(1) sa=1.8u sb=1.8u sd=96n ptwell=0 par=1 p_la=4n ngcon=1 \
        nsig_delvto_uo1=0 nsig_delvto_uo2=0 soa=1 swshe=0 swacc=0 swrg=0 \
        swrsub=0 mismatch=1 m=1
ends LVT_invx2_PB4_AFBB
// End of subcircuit definition.

// Library name: S28_coreLVTPB4_AFBB
// Cell name: LVT_RFDFFx1_PB4_AFBB
// View name: schematic
subckt LVT_RFDFFx1_PB4_AFBB CK D Q Qb inh_gnd inh_gnds inh_vdd inh_vdds
    N14 (Qb Q net059 inh_gnds) lvtnfet w=400n l=30.00n as=39.2f ad=39.2f \
        nf=(1)*(1) sa=1.8u sb=1.8u sd=96n ptwell=0 par=1 p_la=4n ngcon=1 \
        nsig_delvto_uo1=0 nsig_delvto_uo2=0 soa=1 swshe=0 swacc=-1 swrg=-1 \
        swrsub=-1 mismatch=1 m=1
    N13 (net059 net055 inh_gnd inh_gnds) lvtnfet w=400n l=30.00n as=39.2f \
        ad=39.2f nf=(1)*(1) sa=1.8u sb=1.8u sd=96n ptwell=0 par=1 p_la=4n \
        ngcon=1 nsig_delvto_uo1=0 nsig_delvto_uo2=0 soa=1 swshe=0 swacc=-1 \
        swrg=-1 swrsub=-1 mismatch=1 m=1
    N12 (Q Qb net057 inh_gnds) lvtnfet w=400n l=30.00n as=39.2f ad=39.2f \
        nf=(1)*(1) sa=1.8u sb=1.8u sd=96n ptwell=0 par=1 p_la=4n ngcon=1 \
        nsig_delvto_uo1=0 nsig_delvto_uo2=0 soa=1 swshe=0 swacc=-1 swrg=-1 \
        swrsub=-1 mismatch=1 m=1
    N11 (net057 net051 inh_gnd inh_gnds) lvtnfet w=400n l=30.00n as=39.2f \
        ad=39.2f nf=(1)*(1) sa=1.8u sb=1.8u sd=96n ptwell=0 par=1 p_la=4n \
        ngcon=1 nsig_delvto_uo1=0 nsig_delvto_uo2=0 soa=1 swshe=0 swacc=-1 \
        swrg=-1 swrsub=-1 mismatch=1 m=1
    N10 (net055 net015 net061 inh_gnds) lvtnfet w=400n l=30.00n as=39.2f \
        ad=39.2f nf=(1)*(1) sa=1.8u sb=1.8u sd=96n ptwell=0 par=1 p_la=4n \
        ngcon=1 nsig_delvto_uo1=0 nsig_delvto_uo2=0 soa=1 swshe=0 swacc=-1 \
        swrg=-1 swrsub=-1 mismatch=1 m=1
    N9 (net061 CK inh_gnd inh_gnds) lvtnfet w=400n l=30.00n as=39.2f \
        ad=39.2f nf=(1)*(1) sa=1.8u sb=1.8u sd=96n ptwell=0 par=1 p_la=4n \
        ngcon=1 nsig_delvto_uo1=0 nsig_delvto_uo2=0 soa=1 swshe=0 swacc=-1 \
        swrg=-1 swrsub=-1 mismatch=1 m=1
    N3 (net069 net055 inh_gnd inh_gnds) lvtnfet w=400n l=30.00n as=39.2f \
        ad=39.2f nf=(1)*(1) sa=1.8u sb=1.8u sd=96n ptwell=0 par=1 p_la=4n \
        ngcon=1 nsig_delvto_uo1=0 nsig_delvto_uo2=0 soa=1 swshe=0 swacc=-1 \
        swrg=-1 swrsub=-1 mismatch=1 m=1
    N1 (net070 net051 inh_gnd inh_gnds) lvtnfet w=400n l=30.00n as=39.2f \
        ad=39.2f nf=(1)*(1) sa=1.8u sb=1.8u sd=96n ptwell=0 par=1 p_la=4n \
        ngcon=1 nsig_delvto_uo1=0 nsig_delvto_uo2=0 soa=1 swshe=0 swacc=-1 \
        swrg=-1 swrsub=-1 mismatch=1 m=1
    N2 (net09 D net069 inh_gnds) lvtnfet w=400n l=30.00n as=39.2f ad=39.2f \
        nf=(1)*(1) sa=1.8u sb=1.8u sd=96n ptwell=0 par=1 p_la=4n ngcon=1 \
        nsig_delvto_uo1=0 nsig_delvto_uo2=0 soa=1 swshe=0 swacc=-1 swrg=-1 \
        swrsub=-1 mismatch=1 m=1
    N0 (net039 net09 net070 inh_gnds) lvtnfet w=400n l=30.00n as=39.2f \
        ad=39.2f nf=(1)*(1) sa=1.8u sb=1.8u sd=96n ptwell=0 par=1 p_la=4n \
        ngcon=1 nsig_delvto_uo1=0 nsig_delvto_uo2=0 soa=1 swshe=0 swacc=-1 \
        swrg=-1 swrsub=-1 mismatch=1 m=1
    N6 (net015 net039 inh_gnd inh_gnds) lvtnfet w=200n l=30.00n as=19.6f \
        ad=19.6f nf=(1)*(1) sa=1.8u sb=1.8u sd=96n ptwell=0 par=1 p_la=4n \
        ngcon=1 nsig_delvto_uo1=0 nsig_delvto_uo2=0 soa=1 swshe=0 swacc=0 \
        swrg=0 swrsub=0 mismatch=1 m=1
    N7 (net051 net039 net063 inh_gnds) lvtnfet w=400n l=30.00n as=39.2f \
        ad=39.2f nf=(1)*(1) sa=1.8u sb=1.8u sd=96n ptwell=0 par=1 p_la=4n \
        ngcon=1 nsig_delvto_uo1=0 nsig_delvto_uo2=0 soa=1 swshe=0 swacc=-1 \
        swrg=-1 swrsub=-1 mismatch=1 m=1
    N8 (net063 CK inh_gnd inh_gnds) lvtnfet w=400n l=30.00n as=39.2f \
        ad=39.2f nf=(1)*(1) sa=1.8u sb=1.8u sd=96n ptwell=0 par=1 p_la=4n \
        ngcon=1 nsig_delvto_uo1=0 nsig_delvto_uo2=0 soa=1 swshe=0 swacc=-1 \
        swrg=-1 swrsub=-1 mismatch=1 m=1
    P14 (Qb net055 inh_vdd inh_vdds) lvtpfet w=260n l=30n as=25.48f \
        ad=25.48f nf=(1)*(1) sa=1.8u sb=1.8u sd=96n ptwell=0 par=1 p_la=4n \
        ngcon=1 nsig_delvto_uo1=0 nsig_delvto_uo2=0 soa=1 swshe=0 swacc=-1 \
        swrg=-1 swrsub=-1 mismatch=1 m=1
    P13 (Qb Q inh_vdd inh_vdds) lvtpfet w=260n l=30.00n as=25.48f \
        ad=25.48f nf=(1)*(1) sa=1.8u sb=1.8u sd=96n ptwell=0 par=1 p_la=4n \
        ngcon=1 nsig_delvto_uo1=0 nsig_delvto_uo2=0 soa=1 swshe=0 swacc=-1 \
        swrg=-1 swrsub=-1 mismatch=1 m=1
    P12 (Q Qb inh_vdd inh_vdds) lvtpfet w=260n l=30.00n as=25.48f \
        ad=25.48f nf=(1)*(1) sa=1.8u sb=1.8u sd=96n ptwell=0 par=1 p_la=4n \
        ngcon=1 nsig_delvto_uo1=0 nsig_delvto_uo2=0 soa=1 swshe=0 swacc=-1 \
        swrg=-1 swrsub=-1 mismatch=1 m=1
    P11 (Q net051 inh_vdd inh_vdds) lvtpfet w=260n l=30n as=25.48f \
        ad=25.48f nf=(1)*(1) sa=1.8u sb=1.8u sd=96n ptwell=0 par=1 p_la=4n \
        ngcon=1 nsig_delvto_uo1=0 nsig_delvto_uo2=0 soa=1 swshe=0 swacc=-1 \
        swrg=-1 swrsub=-1 mismatch=1 m=1
    P10 (net055 CK inh_vdd inh_vdds) lvtpfet w=260n l=30n as=25.48f \
        ad=25.48f nf=(1)*(1) sa=1.8u sb=1.8u sd=96n ptwell=0 par=1 p_la=4n \
        ngcon=1 nsig_delvto_uo1=0 nsig_delvto_uo2=0 soa=1 swshe=0 swacc=-1 \
        swrg=-1 swrsub=-1 mismatch=1 m=1
    P9 (net055 net015 inh_vdd inh_vdds) lvtpfet w=260n l=30.00n as=25.48f \
        ad=25.48f nf=(1)*(1) sa=1.8u sb=1.8u sd=96n ptwell=0 par=1 p_la=4n \
        ngcon=1 nsig_delvto_uo1=0 nsig_delvto_uo2=0 soa=1 swshe=0 swacc=-1 \
        swrg=-1 swrsub=-1 mismatch=1 m=1
    P1 (net039 net051 inh_vdd inh_vdds) lvtpfet w=260n l=30n as=25.48f \
        ad=25.48f nf=(1)*(1) sa=1.8u sb=1.8u sd=96n ptwell=0 par=1 p_la=4n \
        ngcon=1 nsig_delvto_uo1=0 nsig_delvto_uo2=0 soa=1 swshe=0 swacc=-1 \
        swrg=-1 swrsub=-1 mismatch=1 m=1
    P0 (net039 net09 inh_vdd inh_vdds) lvtpfet w=260n l=30.00n as=25.48f \
        ad=25.48f nf=(1)*(1) sa=1.8u sb=1.8u sd=96n ptwell=0 par=1 p_la=4n \
        ngcon=1 nsig_delvto_uo1=0 nsig_delvto_uo2=0 soa=1 swshe=0 swacc=-1 \
        swrg=-1 swrsub=-1 mismatch=1 m=1
    P2 (net09 net055 inh_vdd inh_vdds) lvtpfet w=260n l=30n as=25.48f \
        ad=25.48f nf=(1)*(1) sa=1.8u sb=1.8u sd=96n ptwell=0 par=1 p_la=4n \
        ngcon=1 nsig_delvto_uo1=0 nsig_delvto_uo2=0 soa=1 swshe=0 swacc=-1 \
        swrg=-1 swrsub=-1 mismatch=1 m=1
    P3 (net09 D inh_vdd inh_vdds) lvtpfet w=260n l=30.00n as=25.48f \
        ad=25.48f nf=(1)*(1) sa=1.8u sb=1.8u sd=96n ptwell=0 par=1 p_la=4n \
        ngcon=1 nsig_delvto_uo1=0 nsig_delvto_uo2=0 soa=1 swshe=0 swacc=-1 \
        swrg=-1 swrsub=-1 mismatch=1 m=1
    P6 (net015 net039 inh_vdd inh_vdds) lvtpfet w=275n l=30.00n as=26.95f \
        ad=26.95f nf=(1)*(1) sa=1.8u sb=1.8u sd=96n ptwell=0 par=1 p_la=4n \
        ngcon=1 nsig_delvto_uo1=0 nsig_delvto_uo2=0 soa=1 swshe=0 swacc=0 \
        swrg=0 swrsub=0 mismatch=1 m=1
    P7 (net051 CK inh_vdd inh_vdds) lvtpfet w=260n l=30n as=25.48f \
        ad=25.48f nf=(1)*(1) sa=1.8u sb=1.8u sd=96n ptwell=0 par=1 p_la=4n \
        ngcon=1 nsig_delvto_uo1=0 nsig_delvto_uo2=0 soa=1 swshe=0 swacc=-1 \
        swrg=-1 swrsub=-1 mismatch=1 m=1
    P8 (net051 net039 inh_vdd inh_vdds) lvtpfet w=260n l=30.00n as=25.48f \
        ad=25.48f nf=(1)*(1) sa=1.8u sb=1.8u sd=96n ptwell=0 par=1 p_la=4n \
        ngcon=1 nsig_delvto_uo1=0 nsig_delvto_uo2=0 soa=1 swshe=0 swacc=-1 \
        swrg=-1 swrsub=-1 mismatch=1 m=1
ends LVT_RFDFFx1_PB4_AFBB
// End of subcircuit definition.

// Library name: S28_coreLVTPB4_AFBB
// Cell name: LVT_invx1_PB4_AFBB
// View name: schematic
subckt LVT_invx1_PB4_AFBB in out inh_gnd inh_gnds inh_vdd inh_vdds
    N1 (out in inh_gnd inh_gnds) lvtnfet w=200n l=30.00n as=19.6f ad=19.6f \
        nf=(1)*(1) sa=1.8u sb=1.8u sd=106n ptwell=0 par=1 p_la=4n ngcon=1 \
        nsig_delvto_uo1=0 nsig_delvto_uo2=0 soa=1 swshe=1 swacc=0 swrg=0 \
        swrsub=0 mismatch=1 m=1
    P1 (out in inh_vdd inh_vdds) lvtpfet w=275n l=30.00n as=26.95f \
        ad=26.95f nf=(1)*(1) sa=1.8u sb=1.8u sd=106n ptwell=0 par=1 \
        p_la=4n ngcon=1 nsig_delvto_uo1=0 nsig_delvto_uo2=0 soa=1 swshe=0 \
        swacc=0 swrg=0 swrsub=0 mismatch=1 m=1
ends LVT_invx1_PB4_AFBB
// End of subcircuit definition.

// Library name: S28_coreLVTPB4_AFBB
// Cell name: LVT_NOR2x1_PB4_AFBB
// View name: schematic
subckt LVT_NOR2x1_PB4_AFBB A B Z inh_gnd inh_gnds inh_vdd inh_vdds
    N0 (Z A inh_gnd inh_gnds) lvtnfet w=200n l=30.00n as=19.6f ad=19.6f \
        nf=(1)*(1) sa=1.8u sb=1.8u sd=96n ptwell=0 par=1 p_la=4n ngcon=1 \
        nsig_delvto_uo1=0 nsig_delvto_uo2=0 soa=1 swshe=0 swacc=-1 swrg=-1 \
        swrsub=-1 mismatch=1 m=1
    N1 (Z B inh_gnd inh_gnds) lvtnfet w=200n l=30.00n as=19.6f ad=19.6f \
        nf=(1)*(1) sa=1.8u sb=1.8u sd=96n ptwell=0 par=1 p_la=4n ngcon=1 \
        nsig_delvto_uo1=0 nsig_delvto_uo2=0 soa=1 swshe=0 swacc=-1 swrg=-1 \
        swrsub=-1 mismatch=1 m=1
    P0 (net10 A inh_vdd inh_vdds) lvtpfet w=460n l=30.00n as=45.08f \
        ad=45.08f nf=(1)*(1) sa=1.8u sb=1.8u sd=96n ptwell=0 par=1 p_la=4n \
        ngcon=1 nsig_delvto_uo1=0 nsig_delvto_uo2=0 soa=1 swshe=0 swacc=-1 \
        swrg=-1 swrsub=-1 mismatch=1 m=1
    P1 (Z B net10 inh_vdds) lvtpfet w=460n l=30.00n as=45.08f ad=45.08f \
        nf=(1)*(1) sa=1.8u sb=1.8u sd=96n ptwell=0 par=1 p_la=4n ngcon=1 \
        nsig_delvto_uo1=0 nsig_delvto_uo2=0 soa=1 swshe=0 swacc=-1 swrg=-1 \
        swrsub=-1 mismatch=1 m=1
ends LVT_NOR2x1_PB4_AFBB
// End of subcircuit definition.

// Library name: S28_coreLVTPB4_AFBB
// Cell name: LVT_BUFx1_PB4_AFBB
// View name: schematic
subckt LVT_BUFx1_PB4_AFBB in out inh_gnd inh_gnds inh_vdd inh_vdds
    N0 (out net8 inh_gnd inh_gnds) lvtnfet w=200n l=30.00n as=19.6f \
        ad=19.6f nf=(1)*(1) sa=1.8u sb=1.8u sd=96n ptwell=0 par=1 p_la=4n \
        ngcon=1 nsig_delvto_uo1=0 nsig_delvto_uo2=0 soa=1 swshe=0 swacc=0 \
        swrg=0 swrsub=0 mismatch=1 m=1
    N1 (net8 in inh_gnd inh_gnds) lvtnfet w=200n l=30.00n as=19.6f \
        ad=19.6f nf=(1)*(1) sa=1.8u sb=1.8u sd=96n ptwell=0 par=1 p_la=4n \
        ngcon=1 nsig_delvto_uo1=0 nsig_delvto_uo2=0 soa=1 swshe=0 swacc=0 \
        swrg=0 swrsub=0 mismatch=1 m=1
    P0 (out net8 inh_vdd inh_vdds) lvtpfet w=275n l=30.00n as=26.95f \
        ad=26.95f nf=(1)*(1) sa=1.8u sb=1.8u sd=96n ptwell=0 par=1 p_la=4n \
        ngcon=1 nsig_delvto_uo1=0 nsig_delvto_uo2=0 soa=1 swshe=0 swacc=0 \
        swrg=0 swrsub=0 mismatch=1 m=1
    P1 (net8 in inh_vdd inh_vdds) lvtpfet w=275n l=30.00n as=26.95f \
        ad=26.95f nf=(1)*(1) sa=1.8u sb=1.8u sd=96n ptwell=0 par=1 p_la=4n \
        ngcon=1 nsig_delvto_uo1=0 nsig_delvto_uo2=0 soa=1 swshe=0 swacc=0 \
        swrg=0 swrsub=0 mismatch=1 m=1
ends LVT_BUFx1_PB4_AFBB
// End of subcircuit definition.

// Library name: soc_no_opt_16may
// Cell name: IDEX_preg
// View name: schematic
subckt soc_no_opt_16may_IDEX_preg_schematic clk flush \
        ALU_operation_in\<3\> ALU_operation_in\<2\> ALU_operation_in\<1\> \
        ALU_operation_in\<0\> ALU_operation_out\<3\> \
        ALU_operation_out\<2\> ALU_operation_out\<1\> \
        ALU_operation_out\<0\> reg1_out\<31\> reg1_out\<30\> \
        reg1_out\<29\> reg1_out\<28\> reg1_out\<27\> reg1_out\<26\> \
        reg1_out\<25\> reg1_out\<24\> reg1_out\<23\> reg1_out\<22\> \
        reg1_out\<21\> reg1_out\<20\> reg1_out\<19\> reg1_out\<18\> \
        reg1_out\<17\> reg1_out\<16\> reg1_out\<15\> reg1_out\<14\> \
        reg1_out\<13\> reg1_out\<12\> reg1_out\<11\> reg1_out\<10\> \
        reg1_out\<9\> reg1_out\<8\> reg1_out\<7\> reg1_out\<6\> \
        reg1_out\<5\> reg1_out\<4\> reg1_out\<3\> reg1_out\<2\> \
        reg1_out\<1\> reg1_out\<0\> reg2_out\<31\> reg2_out\<30\> \
        reg2_out\<29\> reg2_out\<28\> reg2_out\<27\> reg2_out\<26\> \
        reg2_out\<25\> reg2_out\<24\> reg2_out\<23\> reg2_out\<22\> \
        reg2_out\<21\> reg2_out\<20\> reg2_out\<19\> reg2_out\<18\> \
        reg2_out\<17\> reg2_out\<16\> reg2_out\<15\> reg2_out\<14\> \
        reg2_out\<13\> reg2_out\<12\> reg2_out\<11\> reg2_out\<10\> \
        reg2_out\<9\> reg2_out\<8\> reg2_out\<7\> reg2_out\<6\> \
        reg2_out\<5\> reg2_out\<4\> reg2_out\<3\> reg2_out\<2\> \
        reg2_out\<1\> reg2_out\<0\> imm_out\<31\> imm_out\<30\> \
        imm_out\<29\> imm_out\<28\> imm_out\<27\> imm_out\<26\> \
        imm_out\<25\> imm_out\<24\> imm_out\<23\> imm_out\<22\> \
        imm_out\<21\> imm_out\<20\> imm_out\<19\> imm_out\<18\> \
        imm_out\<17\> imm_out\<16\> imm_out\<15\> imm_out\<14\> \
        imm_out\<13\> imm_out\<12\> imm_out\<11\> imm_out\<10\> \
        imm_out\<9\> imm_out\<8\> imm_out\<7\> imm_out\<6\> imm_out\<5\> \
        imm_out\<4\> imm_out\<3\> imm_out\<2\> imm_out\<1\> imm_out\<0\> \
        is_imm_out rs1_out\<4\> rs1_out\<3\> rs1_out\<2\> rs1_out\<1\> \
        rs1_out\<0\> rs2_out\<4\> rs2_out\<3\> rs2_out\<2\> rs2_out\<1\> \
        rs2_out\<0\> rd_out\<4\> rd_out\<3\> rd_out\<2\> rd_out\<1\> \
        rd_out\<0\> reg1_in\<31\> reg1_in\<30\> reg1_in\<29\> \
        reg1_in\<28\> reg1_in\<27\> reg1_in\<26\> reg1_in\<25\> \
        reg1_in\<24\> reg1_in\<23\> reg1_in\<22\> reg1_in\<21\> \
        reg1_in\<20\> reg1_in\<19\> reg1_in\<18\> reg1_in\<17\> \
        reg1_in\<16\> reg1_in\<15\> reg1_in\<14\> reg1_in\<13\> \
        reg1_in\<12\> reg1_in\<11\> reg1_in\<10\> reg1_in\<9\> \
        reg1_in\<8\> reg1_in\<7\> reg1_in\<6\> reg1_in\<5\> reg1_in\<4\> \
        reg1_in\<3\> reg1_in\<2\> reg1_in\<1\> reg1_in\<0\> reg2_in\<31\> \
        reg2_in\<30\> reg2_in\<29\> reg2_in\<28\> reg2_in\<27\> \
        reg2_in\<26\> reg2_in\<25\> reg2_in\<24\> reg2_in\<23\> \
        reg2_in\<22\> reg2_in\<21\> reg2_in\<20\> reg2_in\<19\> \
        reg2_in\<18\> reg2_in\<17\> reg2_in\<16\> reg2_in\<15\> \
        reg2_in\<14\> reg2_in\<13\> reg2_in\<12\> reg2_in\<11\> \
        reg2_in\<10\> reg2_in\<9\> reg2_in\<8\> reg2_in\<7\> reg2_in\<6\> \
        reg2_in\<5\> reg2_in\<4\> reg2_in\<3\> reg2_in\<2\> reg2_in\<1\> \
        reg2_in\<0\> imm_in\<31\> imm_in\<30\> imm_in\<29\> imm_in\<28\> \
        imm_in\<27\> imm_in\<26\> imm_in\<25\> imm_in\<24\> imm_in\<23\> \
        imm_in\<22\> imm_in\<21\> imm_in\<20\> imm_in\<19\> imm_in\<18\> \
        imm_in\<17\> imm_in\<16\> imm_in\<15\> imm_in\<14\> imm_in\<13\> \
        imm_in\<12\> imm_in\<11\> imm_in\<10\> imm_in\<9\> imm_in\<8\> \
        imm_in\<7\> imm_in\<6\> imm_in\<5\> imm_in\<4\> imm_in\<3\> \
        imm_in\<2\> imm_in\<1\> imm_in\<0\> is_imm_in rs1_in\<4\> \
        rs1_in\<3\> rs1_in\<2\> rs1_in\<1\> rs1_in\<0\> rs2_in\<4\> \
        rs2_in\<3\> rs2_in\<2\> rs2_in\<1\> rs2_in\<0\> rd_in\<4\> \
        rd_in\<3\> rd_in\<2\> rd_in\<1\> rd_in\<0\> mem_we_in mem_re_in \
        mem_be_in\<1\> mem_be_in\<0\> mem_load_unsigned_in \
        mem_load_unsigned_out wb_src_in\<1\> wb_src_in\<0\> wb_we_in \
        mem_we_out mem_re_out mem_be_out\<1\> mem_be_out\<0\> \
        wb_src_out\<1\> wb_src_out\<0\> wb_we_out is_branch_in \
        is_branch_out branch_target_in\<10\> branch_target_in\<9\> \
        branch_target_in\<8\> branch_target_in\<7\> branch_target_in\<6\> \
        branch_target_in\<5\> branch_target_in\<4\> branch_target_in\<3\> \
        branch_target_in\<2\> branch_target_in\<1\> branch_target_in\<0\> \
        branch_target_out\<10\> branch_target_out\<9\> \
        branch_target_out\<8\> branch_target_out\<7\> \
        branch_target_out\<6\> branch_target_out\<5\> \
        branch_target_out\<4\> branch_target_out\<3\> \
        branch_target_out\<2\> branch_target_out\<1\> \
        branch_target_out\<0\> current_PC_in\<10\> current_PC_in\<9\> \
        current_PC_in\<8\> current_PC_in\<7\> current_PC_in\<6\> \
        current_PC_in\<5\> current_PC_in\<4\> current_PC_in\<3\> \
        current_PC_in\<2\> current_PC_in\<1\> current_PC_in\<0\> \
        current_PC_out\<10\> current_PC_out\<9\> current_PC_out\<8\> \
        current_PC_out\<7\> current_PC_out\<6\> current_PC_out\<5\> \
        current_PC_out\<4\> current_PC_out\<3\> current_PC_out\<2\> \
        current_PC_out\<1\> current_PC_out\<0\> reg_or_PC_in reg_or_PC_out \
        is_jump_in is_jump_out PC_incr_in\<10\> PC_incr_in\<9\> \
        PC_incr_in\<8\> PC_incr_in\<7\> PC_incr_in\<6\> PC_incr_in\<5\> \
        PC_incr_in\<4\> PC_incr_in\<3\> PC_incr_in\<2\> PC_incr_in\<1\> \
        PC_incr_in\<0\> PC_incr_out\<10\> PC_incr_out\<9\> \
        PC_incr_out\<8\> PC_incr_out\<7\> PC_incr_out\<6\> \
        PC_incr_out\<5\> PC_incr_out\<4\> PC_incr_out\<3\> \
        PC_incr_out\<2\> PC_incr_out\<1\> PC_incr_out\<0\> branched_in \
        branched_out inh_gnd inh_gnds inh_vdd inh_vdds
    wb_src_out_reg_1_ (clk wb_src_in\<1\> NeTt_727 n133 inh_gnd inh_gnds \
        inh_vdd inh_vdds) LVT_RFDFFx1_PB4_AFBB
    wb_src_out_reg_0_ (clk wb_src_in\<0\> NeTt_728 n135 inh_gnd inh_gnds \
        inh_vdd inh_vdds) LVT_RFDFFx1_PB4_AFBB
    mem_be_out_reg_1_ (clk n110 mem_be_out\<1\> NeTt_729 inh_gnd inh_gnds \
        inh_vdd inh_vdds) LVT_RFDFFx1_PB4_AFBB
    mem_be_out_reg_0_ (clk n97 mem_be_out\<0\> NeTt_730 inh_gnd inh_gnds \
        inh_vdd inh_vdds) LVT_RFDFFx1_PB4_AFBB
    wb_we_out_reg (clk N10 wb_we_out NeTt_731 inh_gnd inh_gnds inh_vdd \
        inh_vdds) LVT_RFDFFx1_PB4_AFBB
    is_branch_out_reg (clk n144 is_branch_out NeTt_732 inh_gnd inh_gnds \
        inh_vdd inh_vdds) LVT_RFDFFx1_PB4_AFBB
    is_jump_out_reg (clk n145 is_jump_out NeTt_733 inh_gnd inh_gnds \
        inh_vdd inh_vdds) LVT_RFDFFx1_PB4_AFBB
    branched_out_reg (clk n146 branched_out NeTt_734 inh_gnd inh_gnds \
        inh_vdd inh_vdds) LVT_RFDFFx1_PB4_AFBB
    mem_we_out_reg (clk n152 mem_we_out NeTt_735 inh_gnd inh_gnds inh_vdd \
        inh_vdds) LVT_RFDFFx1_PB4_AFBB
    mem_re_out_reg (clk n153 mem_re_out NeTt_736 inh_gnd inh_gnds inh_vdd \
        inh_vdds) LVT_RFDFFx1_PB4_AFBB
    rs2_out_reg_1_ (clk n119 NeTt_737 n102 inh_gnd inh_gnds inh_vdd \
        inh_vdds) LVT_RFDFFx1_PB4_AFBB
    rs2_out_reg_3_ (clk n111 NeTt_738 n99 inh_gnd inh_gnds inh_vdd \
        inh_vdds) LVT_RFDFFx1_PB4_AFBB
    rd_out_reg_4_ (clk n151 NeTt_739 n130 inh_gnd inh_gnds inh_vdd \
        inh_vdds) LVT_RFDFFx1_PB4_AFBB
    rd_out_reg_2_ (clk n149 NeTt_740 n128 inh_gnd inh_gnds inh_vdd \
        inh_vdds) LVT_RFDFFx1_PB4_AFBB
    rd_out_reg_3_ (clk n150 NeTt_741 n122 inh_gnd inh_gnds inh_vdd \
        inh_vdds) LVT_RFDFFx1_PB4_AFBB
    rd_out_reg_0_ (clk n147 NeTt_742 n124 inh_gnd inh_gnds inh_vdd \
        inh_vdds) LVT_RFDFFx1_PB4_AFBB
    rd_out_reg_1_ (clk n148 NeTt_743 n114 inh_gnd inh_gnds inh_vdd \
        inh_vdds) LVT_RFDFFx1_PB4_AFBB
    is_imm_out_reg (clk is_imm_in NeTt_744 n132 inh_gnd inh_gnds inh_vdd \
        inh_vdds) LVT_RFDFFx1_PB4_AFBB
    mem_load_unsigned_out_reg (clk n98 mem_load_unsigned_out NeTt_745 \
        inh_gnd inh_gnds inh_vdd inh_vdds) LVT_RFDFFx1_PB4_AFBB
    rs2_out_reg_0_ (clk rs2_in\<0\> NeTt_746 n141 inh_gnd inh_gnds inh_vdd \
        inh_vdds) LVT_RFDFFx1_PB4_AFBB
    rs2_out_reg_2_ (clk rs2_in\<2\> NeTt_747 n116 inh_gnd inh_gnds inh_vdd \
        inh_vdds) LVT_RFDFFx1_PB4_AFBB
    rs2_out_reg_4_ (clk rs2_in\<4\> NeTt_748 n108 inh_gnd inh_gnds inh_vdd \
        inh_vdds) LVT_RFDFFx1_PB4_AFBB
    ALU_operation_out_reg_1_ (clk ALU_operation_in\<1\> NeTt_749 n139 \
        inh_gnd inh_gnds inh_vdd inh_vdds) LVT_RFDFFx1_PB4_AFBB
    ALU_operation_out_reg_0_ (clk ALU_operation_in\<0\> NeTt_750 n126 \
        inh_gnd inh_gnds inh_vdd inh_vdds) LVT_RFDFFx1_PB4_AFBB
    ALU_operation_out_reg_2_ (clk ALU_operation_in\<2\> NeTt_751 n104 \
        inh_gnd inh_gnds inh_vdd inh_vdds) LVT_RFDFFx1_PB4_AFBB
    rs1_out_reg_0_ (clk rs1_in\<0\> NeTt_752 n137 inh_gnd inh_gnds inh_vdd \
        inh_vdds) LVT_RFDFFx1_PB4_AFBB
    rs1_out_reg_3_ (clk rs1_in\<3\> NeTt_753 n120 inh_gnd inh_gnds inh_vdd \
        inh_vdds) LVT_RFDFFx1_PB4_AFBB
    rs1_out_reg_1_ (clk n118 rs1_out\<1\> NeTt_754 inh_gnd inh_gnds \
        inh_vdd inh_vdds) LVT_RFDFFx1_PB4_AFBB
    rs1_out_reg_2_ (clk rs1_in\<2\> NeTt_755 n112 inh_gnd inh_gnds inh_vdd \
        inh_vdds) LVT_RFDFFx1_PB4_AFBB
    rs1_out_reg_4_ (clk rs1_in\<4\> NeTt_756 n106 inh_gnd inh_gnds inh_vdd \
        inh_vdds) LVT_RFDFFx1_PB4_AFBB
    reg_or_PC_out_reg (clk reg_or_PC_in reg_or_PC_out NeTt_757 inh_gnd \
        inh_gnds inh_vdd inh_vdds) LVT_RFDFFx1_PB4_AFBB
    imm_out_reg_0_ (clk imm_in\<0\> imm_out\<0\> NeTt_758 inh_gnd inh_gnds \
        inh_vdd inh_vdds) LVT_RFDFFx1_PB4_AFBB
    imm_out_reg_1_ (clk imm_in\<1\> imm_out\<1\> NeTt_759 inh_gnd inh_gnds \
        inh_vdd inh_vdds) LVT_RFDFFx1_PB4_AFBB
    imm_out_reg_2_ (clk imm_in\<2\> imm_out\<2\> NeTt_760 inh_gnd inh_gnds \
        inh_vdd inh_vdds) LVT_RFDFFx1_PB4_AFBB
    imm_out_reg_3_ (clk imm_in\<3\> imm_out\<3\> NeTt_761 inh_gnd inh_gnds \
        inh_vdd inh_vdds) LVT_RFDFFx1_PB4_AFBB
    imm_out_reg_4_ (clk imm_in\<4\> imm_out\<4\> NeTt_762 inh_gnd inh_gnds \
        inh_vdd inh_vdds) LVT_RFDFFx1_PB4_AFBB
    imm_out_reg_5_ (clk imm_in\<5\> imm_out\<5\> NeTt_763 inh_gnd inh_gnds \
        inh_vdd inh_vdds) LVT_RFDFFx1_PB4_AFBB
    imm_out_reg_6_ (clk imm_in\<6\> imm_out\<6\> NeTt_764 inh_gnd inh_gnds \
        inh_vdd inh_vdds) LVT_RFDFFx1_PB4_AFBB
    imm_out_reg_7_ (clk imm_in\<7\> imm_out\<7\> NeTt_765 inh_gnd inh_gnds \
        inh_vdd inh_vdds) LVT_RFDFFx1_PB4_AFBB
    imm_out_reg_8_ (clk imm_in\<8\> imm_out\<8\> NeTt_766 inh_gnd inh_gnds \
        inh_vdd inh_vdds) LVT_RFDFFx1_PB4_AFBB
    imm_out_reg_9_ (clk imm_in\<9\> imm_out\<9\> NeTt_767 inh_gnd inh_gnds \
        inh_vdd inh_vdds) LVT_RFDFFx1_PB4_AFBB
    imm_out_reg_10_ (clk imm_in\<10\> imm_out\<10\> NeTt_768 inh_gnd \
        inh_gnds inh_vdd inh_vdds) LVT_RFDFFx1_PB4_AFBB
    imm_out_reg_11_ (clk imm_in\<11\> imm_out\<11\> NeTt_769 inh_gnd \
        inh_gnds inh_vdd inh_vdds) LVT_RFDFFx1_PB4_AFBB
    imm_out_reg_12_ (clk imm_in\<12\> imm_out\<12\> NeTt_770 inh_gnd \
        inh_gnds inh_vdd inh_vdds) LVT_RFDFFx1_PB4_AFBB
    imm_out_reg_13_ (clk imm_in\<13\> imm_out\<13\> NeTt_771 inh_gnd \
        inh_gnds inh_vdd inh_vdds) LVT_RFDFFx1_PB4_AFBB
    imm_out_reg_14_ (clk imm_in\<14\> imm_out\<14\> NeTt_772 inh_gnd \
        inh_gnds inh_vdd inh_vdds) LVT_RFDFFx1_PB4_AFBB
    imm_out_reg_15_ (clk imm_in\<15\> imm_out\<15\> NeTt_773 inh_gnd \
        inh_gnds inh_vdd inh_vdds) LVT_RFDFFx1_PB4_AFBB
    imm_out_reg_16_ (clk imm_in\<16\> imm_out\<16\> NeTt_774 inh_gnd \
        inh_gnds inh_vdd inh_vdds) LVT_RFDFFx1_PB4_AFBB
    imm_out_reg_17_ (clk imm_in\<17\> imm_out\<17\> NeTt_775 inh_gnd \
        inh_gnds inh_vdd inh_vdds) LVT_RFDFFx1_PB4_AFBB
    imm_out_reg_18_ (clk imm_in\<18\> imm_out\<18\> NeTt_776 inh_gnd \
        inh_gnds inh_vdd inh_vdds) LVT_RFDFFx1_PB4_AFBB
    imm_out_reg_19_ (clk imm_in\<19\> imm_out\<19\> NeTt_777 inh_gnd \
        inh_gnds inh_vdd inh_vdds) LVT_RFDFFx1_PB4_AFBB
    imm_out_reg_20_ (clk imm_in\<20\> imm_out\<20\> NeTt_778 inh_gnd \
        inh_gnds inh_vdd inh_vdds) LVT_RFDFFx1_PB4_AFBB
    imm_out_reg_21_ (clk imm_in\<21\> imm_out\<21\> NeTt_779 inh_gnd \
        inh_gnds inh_vdd inh_vdds) LVT_RFDFFx1_PB4_AFBB
    imm_out_reg_22_ (clk imm_in\<22\> imm_out\<22\> NeTt_780 inh_gnd \
        inh_gnds inh_vdd inh_vdds) LVT_RFDFFx1_PB4_AFBB
    imm_out_reg_23_ (clk imm_in\<23\> imm_out\<23\> NeTt_781 inh_gnd \
        inh_gnds inh_vdd inh_vdds) LVT_RFDFFx1_PB4_AFBB
    imm_out_reg_24_ (clk imm_in\<24\> imm_out\<24\> NeTt_782 inh_gnd \
        inh_gnds inh_vdd inh_vdds) LVT_RFDFFx1_PB4_AFBB
    imm_out_reg_25_ (clk imm_in\<25\> imm_out\<25\> NeTt_783 inh_gnd \
        inh_gnds inh_vdd inh_vdds) LVT_RFDFFx1_PB4_AFBB
    imm_out_reg_26_ (clk imm_in\<26\> imm_out\<26\> NeTt_784 inh_gnd \
        inh_gnds inh_vdd inh_vdds) LVT_RFDFFx1_PB4_AFBB
    imm_out_reg_27_ (clk imm_in\<27\> imm_out\<27\> NeTt_785 inh_gnd \
        inh_gnds inh_vdd inh_vdds) LVT_RFDFFx1_PB4_AFBB
    imm_out_reg_28_ (clk imm_in\<28\> imm_out\<28\> NeTt_786 inh_gnd \
        inh_gnds inh_vdd inh_vdds) LVT_RFDFFx1_PB4_AFBB
    imm_out_reg_29_ (clk imm_in\<29\> imm_out\<29\> NeTt_787 inh_gnd \
        inh_gnds inh_vdd inh_vdds) LVT_RFDFFx1_PB4_AFBB
    imm_out_reg_30_ (clk imm_in\<30\> imm_out\<30\> NeTt_788 inh_gnd \
        inh_gnds inh_vdd inh_vdds) LVT_RFDFFx1_PB4_AFBB
    imm_out_reg_31_ (clk imm_in\<31\> imm_out\<31\> NeTt_789 inh_gnd \
        inh_gnds inh_vdd inh_vdds) LVT_RFDFFx1_PB4_AFBB
    reg2_out_reg_0_ (clk reg2_in\<0\> reg2_out\<0\> NeTt_790 inh_gnd \
        inh_gnds inh_vdd inh_vdds) LVT_RFDFFx1_PB4_AFBB
    reg2_out_reg_1_ (clk reg2_in\<1\> reg2_out\<1\> NeTt_791 inh_gnd \
        inh_gnds inh_vdd inh_vdds) LVT_RFDFFx1_PB4_AFBB
    reg2_out_reg_2_ (clk reg2_in\<2\> reg2_out\<2\> NeTt_792 inh_gnd \
        inh_gnds inh_vdd inh_vdds) LVT_RFDFFx1_PB4_AFBB
    reg2_out_reg_3_ (clk reg2_in\<3\> reg2_out\<3\> NeTt_793 inh_gnd \
        inh_gnds inh_vdd inh_vdds) LVT_RFDFFx1_PB4_AFBB
    reg2_out_reg_4_ (clk reg2_in\<4\> reg2_out\<4\> NeTt_794 inh_gnd \
        inh_gnds inh_vdd inh_vdds) LVT_RFDFFx1_PB4_AFBB
    reg2_out_reg_5_ (clk reg2_in\<5\> reg2_out\<5\> NeTt_795 inh_gnd \
        inh_gnds inh_vdd inh_vdds) LVT_RFDFFx1_PB4_AFBB
    reg2_out_reg_6_ (clk reg2_in\<6\> reg2_out\<6\> NeTt_796 inh_gnd \
        inh_gnds inh_vdd inh_vdds) LVT_RFDFFx1_PB4_AFBB
    reg2_out_reg_7_ (clk reg2_in\<7\> reg2_out\<7\> NeTt_797 inh_gnd \
        inh_gnds inh_vdd inh_vdds) LVT_RFDFFx1_PB4_AFBB
    reg2_out_reg_8_ (clk reg2_in\<8\> reg2_out\<8\> NeTt_798 inh_gnd \
        inh_gnds inh_vdd inh_vdds) LVT_RFDFFx1_PB4_AFBB
    reg2_out_reg_9_ (clk reg2_in\<9\> reg2_out\<9\> NeTt_799 inh_gnd \
        inh_gnds inh_vdd inh_vdds) LVT_RFDFFx1_PB4_AFBB
    reg2_out_reg_10_ (clk reg2_in\<10\> reg2_out\<10\> NeTt_800 inh_gnd \
        inh_gnds inh_vdd inh_vdds) LVT_RFDFFx1_PB4_AFBB
    reg2_out_reg_11_ (clk reg2_in\<11\> reg2_out\<11\> NeTt_801 inh_gnd \
        inh_gnds inh_vdd inh_vdds) LVT_RFDFFx1_PB4_AFBB
    reg2_out_reg_12_ (clk reg2_in\<12\> reg2_out\<12\> NeTt_802 inh_gnd \
        inh_gnds inh_vdd inh_vdds) LVT_RFDFFx1_PB4_AFBB
    reg2_out_reg_13_ (clk reg2_in\<13\> reg2_out\<13\> NeTt_803 inh_gnd \
        inh_gnds inh_vdd inh_vdds) LVT_RFDFFx1_PB4_AFBB
    reg2_out_reg_14_ (clk reg2_in\<14\> reg2_out\<14\> NeTt_804 inh_gnd \
        inh_gnds inh_vdd inh_vdds) LVT_RFDFFx1_PB4_AFBB
    reg2_out_reg_15_ (clk reg2_in\<15\> reg2_out\<15\> NeTt_805 inh_gnd \
        inh_gnds inh_vdd inh_vdds) LVT_RFDFFx1_PB4_AFBB
    reg2_out_reg_16_ (clk reg2_in\<16\> reg2_out\<16\> NeTt_806 inh_gnd \
        inh_gnds inh_vdd inh_vdds) LVT_RFDFFx1_PB4_AFBB
    reg2_out_reg_17_ (clk reg2_in\<17\> reg2_out\<17\> NeTt_807 inh_gnd \
        inh_gnds inh_vdd inh_vdds) LVT_RFDFFx1_PB4_AFBB
    reg2_out_reg_18_ (clk reg2_in\<18\> reg2_out\<18\> NeTt_808 inh_gnd \
        inh_gnds inh_vdd inh_vdds) LVT_RFDFFx1_PB4_AFBB
    reg2_out_reg_19_ (clk reg2_in\<19\> reg2_out\<19\> NeTt_809 inh_gnd \
        inh_gnds inh_vdd inh_vdds) LVT_RFDFFx1_PB4_AFBB
    reg2_out_reg_20_ (clk reg2_in\<20\> reg2_out\<20\> NeTt_810 inh_gnd \
        inh_gnds inh_vdd inh_vdds) LVT_RFDFFx1_PB4_AFBB
    reg2_out_reg_21_ (clk reg2_in\<21\> reg2_out\<21\> NeTt_811 inh_gnd \
        inh_gnds inh_vdd inh_vdds) LVT_RFDFFx1_PB4_AFBB
    reg2_out_reg_22_ (clk reg2_in\<22\> reg2_out\<22\> NeTt_812 inh_gnd \
        inh_gnds inh_vdd inh_vdds) LVT_RFDFFx1_PB4_AFBB
    reg2_out_reg_23_ (clk reg2_in\<23\> reg2_out\<23\> NeTt_813 inh_gnd \
        inh_gnds inh_vdd inh_vdds) LVT_RFDFFx1_PB4_AFBB
    reg2_out_reg_24_ (clk reg2_in\<24\> reg2_out\<24\> NeTt_814 inh_gnd \
        inh_gnds inh_vdd inh_vdds) LVT_RFDFFx1_PB4_AFBB
    reg2_out_reg_25_ (clk reg2_in\<25\> reg2_out\<25\> NeTt_815 inh_gnd \
        inh_gnds inh_vdd inh_vdds) LVT_RFDFFx1_PB4_AFBB
    reg2_out_reg_26_ (clk reg2_in\<26\> reg2_out\<26\> NeTt_816 inh_gnd \
        inh_gnds inh_vdd inh_vdds) LVT_RFDFFx1_PB4_AFBB
    reg2_out_reg_27_ (clk reg2_in\<27\> reg2_out\<27\> NeTt_817 inh_gnd \
        inh_gnds inh_vdd inh_vdds) LVT_RFDFFx1_PB4_AFBB
    reg2_out_reg_28_ (clk reg2_in\<28\> reg2_out\<28\> NeTt_818 inh_gnd \