// Generated for: spectre
// Generated on: Apr  5 17:01:10 2016
// Design library name: power_gating_fine
// Design cell name: alu_sym
// Design view name: schematic
simulator lang=spectre
global 0 vdd gnds vdds VDD GND
//include "models.scs"
include "/home/aasmundo/1_corners.scs"

// Library name: S28_coreLVTPB4_AFBB
// Cell name: LVT_NADN2x1_PB4_AFBB
// View name: schematic
subckt LVT_NADN2x1_PB4_AFBB A B Z inh_gnd inh_gnds inh_vdd inh_vdds
    N1 (net10 A inh_gnd inh_gnds) lvtnfet w=400n l=30.00n as=39.2f \
        ad=39.2f nf=(1)*(1) sa=1.8u sb=1.8u sd=96n ptwell=0 par=1 p_la=4n \
        ngcon=1 nsig_delvto_uo1=0 nsig_delvto_uo2=0 soa=1 swshe=0 swacc=-1 \
        swrg=-1 swrsub=-1 mismatch=1 m=1
    N0 (Z B net10 inh_gnds) lvtnfet w=400n l=30.00n as=39.2f ad=39.2f \
        nf=(1)*(1) sa=1.8u sb=1.8u sd=96n ptwell=0 par=1 p_la=4n ngcon=1 \
        nsig_delvto_uo1=0 nsig_delvto_uo2=0 soa=1 swshe=0 swacc=-1 swrg=-1 \
        swrsub=-1 mismatch=1 m=1
    P0 (Z A inh_vdd inh_vdds) lvtpfet w=260n l=30.00n as=25.48f ad=25.48f \
        nf=(1)*(1) sa=1.8u sb=1.8u sd=96n ptwell=0 par=1 p_la=4n ngcon=1 \
        nsig_delvto_uo1=0 nsig_delvto_uo2=0 soa=1 swshe=0 swacc=-1 swrg=-1 \
        swrsub=-1 mismatch=1 m=1
    P1 (Z B inh_vdd inh_vdds) lvtpfet w=260n l=30n as=25.48f ad=25.48f \
        nf=(1)*(1) sa=1.8u sb=1.8u sd=96n ptwell=0 par=1 p_la=4n ngcon=1 \
        nsig_delvto_uo1=0 nsig_delvto_uo2=0 soa=1 swshe=0 swacc=-1 swrg=-1 \
        swrsub=-1 mismatch=1 m=1
ends LVT_NADN2x1_PB4_AFBB
// End of subcircuit definition.

// Library name: S28_coreLVTPB4_AFBB
// Cell name: LVT_invx2_PB4_AFBB
// View name: schematic
subckt LVT_invx2_PB4_AFBB in out inh_gnd inh_gnds inh_vdd inh_vdds
    N1 (out in inh_gnd inh_gnds) lvtnfet w=400n l=30.00n as=39.2f ad=28.0f \
        nf=(2)*(1) sa=1.8u sb=1.8u sd=96n ptwell=0 par=1 p_la=4n ngcon=1 \
        nsig_delvto_uo1=0 nsig_delvto_uo2=0 soa=1 swshe=0 swacc=0 swrg=0 \
        swrsub=0 mismatch=1 m=1
    P1 (out in inh_vdd inh_vdds) lvtpfet w=550n l=30.00n as=53.9f ad=38.5f \
        nf=(2)*(1) sa=1.8u sb=1.8u sd=96n ptwell=0 par=1 p_la=4n ngcon=1 \
        nsig_delvto_uo1=0 nsig_delvto_uo2=0 soa=1 swshe=0 swacc=0 swrg=0 \
        swrsub=0 mismatch=1 m=1
ends LVT_invx2_PB4_AFBB
// End of subcircuit definition.

// Library name: S28_coreLVTPB4_AFBB
// Cell name: LVT_NOR2x1_PB4_AFBB
// View name: schematic
subckt LVT_NOR2x1_PB4_AFBB A B Z inh_gnd inh_gnds inh_vdd inh_vdds
    N0 (Z A inh_gnd inh_gnds) lvtnfet w=200n l=30.00n as=19.6f ad=19.6f \
        nf=(1)*(1) sa=1.8u sb=1.8u sd=96n ptwell=0 par=1 p_la=4n ngcon=1 \
        nsig_delvto_uo1=0 nsig_delvto_uo2=0 soa=1 swshe=0 swacc=-1 swrg=-1 \
        swrsub=-1 mismatch=1 m=1
    N1 (Z B inh_gnd inh_gnds) lvtnfet w=200n l=30.00n as=19.6f ad=19.6f \
        nf=(1)*(1) sa=1.8u sb=1.8u sd=96n ptwell=0 par=1 p_la=4n ngcon=1 \
        nsig_delvto_uo1=0 nsig_delvto_uo2=0 soa=1 swshe=0 swacc=-1 swrg=-1 \
        swrsub=-1 mismatch=1 m=1
    P0 (net10 A inh_vdd inh_vdds) lvtpfet w=460n l=30.00n as=45.08f \
        ad=45.08f nf=(1)*(1) sa=1.8u sb=1.8u sd=96n ptwell=0 par=1 p_la=4n \
        ngcon=1 nsig_delvto_uo1=0 nsig_delvto_uo2=0 soa=1 swshe=0 swacc=-1 \
        swrg=-1 swrsub=-1 mismatch=1 m=1
    P1 (Z B net10 inh_vdds) lvtpfet w=460n l=30.00n as=45.08f ad=45.08f \
        nf=(1)*(1) sa=1.8u sb=1.8u sd=96n ptwell=0 par=1 p_la=4n ngcon=1 \
        nsig_delvto_uo1=0 nsig_delvto_uo2=0 soa=1 swshe=0 swacc=-1 swrg=-1 \
        swrsub=-1 mismatch=1 m=1
ends LVT_NOR2x1_PB4_AFBB
// End of subcircuit definition.

// Library name: S28_coreLVTPB4_AFBB
// Cell name: LVT_BUFx1_PB4_AFBB
// View name: schematic
subckt LVT_BUFx1_PB4_AFBB in out inh_gnd inh_gnds inh_vdd inh_vdds
    N0 (out net8 inh_gnd inh_gnds) lvtnfet w=200n l=30.00n as=19.6f \
        ad=19.6f nf=(1)*(1) sa=1.8u sb=1.8u sd=96n ptwell=0 par=1 p_la=4n \
        ngcon=1 nsig_delvto_uo1=0 nsig_delvto_uo2=0 soa=1 swshe=0 swacc=0 \
        swrg=0 swrsub=0 mismatch=1 m=1
    N1 (net8 in inh_gnd inh_gnds) lvtnfet w=200n l=30.00n as=19.6f \
        ad=19.6f nf=(1)*(1) sa=1.8u sb=1.8u sd=96n ptwell=0 par=1 p_la=4n \
        ngcon=1 nsig_delvto_uo1=0 nsig_delvto_uo2=0 soa=1 swshe=0 swacc=0 \
        swrg=0 swrsub=0 mismatch=1 m=1
    P0 (out net8 inh_vdd inh_vdds) lvtpfet w=275n l=30.00n as=26.95f \
        ad=26.95f nf=(1)*(1) sa=1.8u sb=1.8u sd=96n ptwell=0 par=1 p_la=4n \
        ngcon=1 nsig_delvto_uo1=0 nsig_delvto_uo2=0 soa=1 swshe=0 swacc=0 \
        swrg=0 swrsub=0 mismatch=1 m=1
    P1 (net8 in inh_vdd inh_vdds) lvtpfet w=275n l=30.00n as=26.95f \
        ad=26.95f nf=(1)*(1) sa=1.8u sb=1.8u sd=96n ptwell=0 par=1 p_la=4n \
        ngcon=1 nsig_delvto_uo1=0 nsig_delvto_uo2=0 soa=1 swshe=0 swacc=0 \
        swrg=0 swrsub=0 mismatch=1 m=1
ends LVT_BUFx1_PB4_AFBB
// End of subcircuit definition.

// Library name: S28_coreLVTPB4_AFBB
// Cell name: LVT_FAx1_PB4_AFBB
// View name: schematic
subckt LVT_FAx1_PB4_AFBB A B Cin Cout sum inh_gnd inh_gnds inh_vdd \
        inh_vdds
    N16 (net047 net04 inh_gnd inh_gnds) lvtnfet w=200n l=30.00n as=19.6f \
        ad=19.6f nf=(1)*(1) sa=1.8u sb=1.8u sd=96n ptwell=0 par=1 p_la=4n \
        ngcon=1 nsig_delvto_uo1=0 nsig_delvto_uo2=0 soa=1 swshe=0 swacc=-1 \
        swrg=-1 swrsub=-1 mismatch=1 m=1
    N15 (net028 net08 inh_gnd inh_gnds) lvtnfet w=200n l=30.00n as=19.6f \
        ad=19.6f nf=(1)*(1) sa=1.8u sb=1.8u sd=96n ptwell=0 par=1 p_la=4n \
        ngcon=1 nsig_delvto_uo1=0 nsig_delvto_uo2=0 soa=1 swshe=0 swacc=-1 \
        swrg=-1 swrsub=-1 mismatch=1 m=1
    N14 (net028 net04 inh_gnd inh_gnds) lvtnfet w=200n l=30.00n as=19.6f \
        ad=19.6f nf=(1)*(1) sa=1.8u sb=1.8u sd=96n ptwell=0 par=1 p_la=4n \
        ngcon=1 nsig_delvto_uo1=0 nsig_delvto_uo2=0 soa=1 swshe=0 swacc=-1 \
        swrg=-1 swrsub=-1 mismatch=1 m=1
    N13 (sum net08 net047 inh_gnds) lvtnfet w=200n l=30.00n as=19.6f \
        ad=19.6f nf=(1)*(1) sa=1.8u sb=1.8u sd=96n ptwell=0 par=1 p_la=4n \
        ngcon=1 nsig_delvto_uo1=0 nsig_delvto_uo2=0 soa=1 swshe=0 swacc=-1 \
        swrg=-1 swrsub=-1 mismatch=1 m=1
    N12 (sum Cout net028 inh_gnds) lvtnfet w=200n l=30.00n as=19.6f \
        ad=19.6f nf=(1)*(1) sa=1.8u sb=1.8u sd=96n ptwell=0 par=1 p_la=4n \
        ngcon=1 nsig_delvto_uo1=0 nsig_delvto_uo2=0 soa=1 swshe=0 swacc=-1 \
        swrg=-1 swrsub=-1 mismatch=1 m=1
    N11 (Cout net012 inh_gnd inh_gnds) lvtnfet w=200n l=30.00n as=19.6f \
        ad=19.6f nf=(1)*(1) sa=1.8u sb=1.8u sd=96n ptwell=0 par=1 p_la=4n \
        ngcon=1 nsig_delvto_uo1=0 nsig_delvto_uo2=0 soa=1 swshe=0 swacc=0 \
        swrg=0 swrsub=0 mismatch=1 m=1
    N10 (net051 A inh_gnd inh_gnds) lvtnfet w=200n l=30.00n as=19.6f \
        ad=19.6f nf=(1)*(1) sa=1.8u sb=1.8u sd=96n ptwell=0 par=1 p_la=4n \
        ngcon=1 nsig_delvto_uo1=0 nsig_delvto_uo2=0 soa=1 swshe=0 swacc=-1 \
        swrg=-1 swrsub=-1 mismatch=1 m=1
    N9 (net011 B inh_gnd inh_gnds) lvtnfet w=200n l=30.00n as=19.6f \
        ad=19.6f nf=(1)*(1) sa=1.8u sb=1.8u sd=96n ptwell=0 par=1 p_la=4n \
        ngcon=1 nsig_delvto_uo1=0 nsig_delvto_uo2=0 soa=1 swshe=0 swacc=-1 \
        swrg=-1 swrsub=-1 mismatch=1 m=1
    N8 (net011 A inh_gnd inh_gnds) lvtnfet w=200n l=30.00n as=19.6f \
        ad=19.6f nf=(1)*(1) sa=1.8u sb=1.8u sd=96n ptwell=0 par=1 p_la=4n \
        ngcon=1 nsig_delvto_uo1=0 nsig_delvto_uo2=0 soa=1 swshe=0 swacc=-1 \
        swrg=-1 swrsub=-1 mismatch=1 m=1
    N7 (net012 B net051 inh_gnds) lvtnfet w=200n l=30.00n as=19.6f \
        ad=19.6f nf=(1)*(1) sa=1.8u sb=1.8u sd=96n ptwell=0 par=1 p_la=4n \
        ngcon=1 nsig_delvto_uo1=0 nsig_delvto_uo2=0 soa=1 swshe=0 swacc=-1 \
        swrg=-1 swrsub=-1 mismatch=1 m=1
    N6 (net012 Cin net011 inh_gnds) lvtnfet w=200n l=30.00n as=19.6f \
        ad=19.6f nf=(1)*(1) sa=1.8u sb=1.8u sd=96n ptwell=0 par=1 p_la=4n \
        ngcon=1 nsig_delvto_uo1=0 nsig_delvto_uo2=0 soa=1 swshe=0 swacc=-1 \
        swrg=-1 swrsub=-1 mismatch=1 m=1
    N4 (net08 B net016 inh_gnds) lvtnfet w=200n l=30.00n as=19.6f ad=19.6f \
        nf=(1)*(1) sa=1.8u sb=1.8u sd=96n ptwell=0 par=1 p_la=4n ngcon=1 \
        nsig_delvto_uo1=0 nsig_delvto_uo2=0 soa=1 swshe=0 swacc=-1 swrg=-1 \
        swrsub=-1 mismatch=1 m=1
    N2 (net08 Cin net07 inh_gnds) lvtnfet w=200n l=30.00n as=19.6f \
        ad=19.6f nf=(1)*(1) sa=1.8u sb=1.8u sd=96n ptwell=0 par=1 p_la=4n \
        ngcon=1 nsig_delvto_uo1=0 nsig_delvto_uo2=0 soa=1 swshe=0 swacc=-1 \
        swrg=-1 swrsub=-1 mismatch=1 m=1
    N3 (net016 net04 inh_gnd inh_gnds) lvtnfet w=200n l=30.00n as=19.6f \
        ad=19.6f nf=(1)*(1) sa=1.8u sb=1.8u sd=96n ptwell=0 par=1 p_la=4n \
        ngcon=1 nsig_delvto_uo1=0 nsig_delvto_uo2=0 soa=1 swshe=0 swacc=-1 \
        swrg=-1 swrsub=-1 mismatch=1 m=1
    N1 (net07 B inh_gnd inh_gnds) lvtnfet w=200n l=30.00n as=19.6f \
        ad=19.6f nf=(1)*(1) sa=1.8u sb=1.8u sd=96n ptwell=0 par=1 p_la=4n \
        ngcon=1 nsig_delvto_uo1=0 nsig_delvto_uo2=0 soa=1 swshe=0 swacc=-1 \
        swrg=-1 swrsub=-1 mismatch=1 m=1
    N0 (net07 net04 inh_gnd inh_gnds) lvtnfet w=200n l=30.00n as=19.6f \
        ad=19.6f nf=(1)*(1) sa=1.8u sb=1.8u sd=96n ptwell=0 par=1 p_la=4n \
        ngcon=1 nsig_delvto_uo1=0 nsig_delvto_uo2=0 soa=1 swshe=0 swacc=-1 \
        swrg=-1 swrsub=-1 mismatch=1 m=1
    N5 (net04 A inh_gnd inh_gnds) lvtnfet w=400n l=30.00n as=39.2f \
        ad=28.0f nf=(2)*(1) sa=1.8u sb=1.8u sd=96n ptwell=0 par=1 p_la=4n \
        ngcon=1 nsig_delvto_uo1=0 nsig_delvto_uo2=0 soa=1 swshe=0 swacc=0 \
        swrg=0 swrsub=0 mismatch=1 m=1
    P16 (net030 net04 inh_vdd inh_vdds) lvtpfet w=275n l=30.00n as=26.95f \
        ad=26.95f nf=(1)*(1) sa=1.8u sb=1.8u sd=96n ptwell=0 par=1 p_la=4n \
        ngcon=1 nsig_delvto_uo1=0 nsig_delvto_uo2=0 soa=1 swshe=0 swacc=-1 \
        swrg=-1 swrsub=-1 mismatch=1 m=1
    P15 (net030 net08 inh_vdd inh_vdds) lvtpfet w=275n l=30.00n as=26.95f \
        ad=26.95f nf=(1)*(1) sa=1.8u sb=1.8u sd=96n ptwell=0 par=1 p_la=4n \
        ngcon=1 nsig_delvto_uo1=0 nsig_delvto_uo2=0 soa=1 swshe=0 swacc=-1 \
        swrg=-1 swrsub=-1 mismatch=1 m=1
    P14 (net048 net04 inh_vdd inh_vdds) lvtpfet w=275n l=30.00n as=26.95f \
        ad=26.95f nf=(1)*(1) sa=1.8u sb=1.8u sd=96n ptwell=0 par=1 p_la=4n \
        ngcon=1 nsig_delvto_uo1=0 nsig_delvto_uo2=0 soa=1 swshe=0 swacc=-1 \
        swrg=-1 swrsub=-1 mismatch=1 m=1
    P13 (sum net08 net048 inh_vdds) lvtpfet w=275n l=30.00n as=26.95f \
        ad=26.95f nf=(1)*(1) sa=1.8u sb=1.8u sd=96n ptwell=0 par=1 p_la=4n \
        ngcon=1 nsig_delvto_uo1=0 nsig_delvto_uo2=0 soa=1 swshe=0 swacc=-1 \
        swrg=-1 swrsub=-1 mismatch=1 m=1
    P12 (sum Cout net030 inh_vdds) lvtpfet w=275n l=30.00n as=26.95f \
        ad=26.95f nf=(1)*(1) sa=1.8u sb=1.8u sd=96n ptwell=0 par=1 p_la=4n \
        ngcon=1 nsig_delvto_uo1=0 nsig_delvto_uo2=0 soa=1 swshe=0 swacc=-1 \
        swrg=-1 swrsub=-1 mismatch=1 m=1
    P11 (Cout net012 inh_vdd inh_vdds) lvtpfet w=275n l=30.00n as=26.95f \
        ad=26.95f nf=(1)*(1) sa=1.8u sb=1.8u sd=96n ptwell=0 par=1 p_la=4n \
        ngcon=1 nsig_delvto_uo1=0 nsig_delvto_uo2=0 soa=1 swshe=0 swacc=0 \
        swrg=0 swrsub=0 mismatch=1 m=1
    P10 (net052 A inh_vdd inh_vdds) lvtpfet w=275n l=30.00n as=26.95f \
        ad=26.95f nf=(1)*(1) sa=1.8u sb=1.8u sd=96n ptwell=0 par=1 p_la=4n \
        ngcon=1 nsig_delvto_uo1=0 nsig_delvto_uo2=0 soa=1 swshe=0 swacc=-1 \
        swrg=-1 swrsub=-1 mismatch=1 m=1
    P9 (net013 B inh_vdd inh_vdds) lvtpfet w=275n l=30.00n as=26.95f \
        ad=26.95f nf=(1)*(1) sa=1.8u sb=1.8u sd=96n ptwell=0 par=1 p_la=4n \
        ngcon=1 nsig_delvto_uo1=0 nsig_delvto_uo2=0 soa=1 swshe=0 swacc=-1 \
        swrg=-1 swrsub=-1 mismatch=1 m=1
    P8 (net013 A inh_vdd inh_vdds) lvtpfet w=275n l=30.00n as=26.95f \
        ad=26.95f nf=(1)*(1) sa=1.8u sb=1.8u sd=96n ptwell=0 par=1 p_la=4n \
        ngcon=1 nsig_delvto_uo1=0 nsig_delvto_uo2=0 soa=1 swshe=0 swacc=-1 \
        swrg=-1 swrsub=-1 mismatch=1 m=1
    P7 (net012 B net052 inh_vdds) lvtpfet w=275n l=30.00n as=26.95f \
        ad=26.95f nf=(1)*(1) sa=1.8u sb=1.8u sd=96n ptwell=0 par=1 p_la=4n \
        ngcon=1 nsig_delvto_uo1=0 nsig_delvto_uo2=0 soa=1 swshe=0 swacc=-1 \
        swrg=-1 swrsub=-1 mismatch=1 m=1
    P6 (net012 Cin net013 inh_vdds) lvtpfet w=275n l=30.00n as=26.95f \
        ad=26.95f nf=(1)*(1) sa=1.8u sb=1.8u sd=96n ptwell=0 par=1 p_la=4n \
        ngcon=1 nsig_delvto_uo1=0 nsig_delvto_uo2=0 soa=1 swshe=0 swacc=-1 \
        swrg=-1 swrsub=-1 mismatch=1 m=1
    P3 (net017 net04 inh_vdd inh_vdds) lvtpfet w=275n l=30.00n as=26.95f \
        ad=26.95f nf=(1)*(1) sa=1.8u sb=1.8u sd=96n ptwell=0 par=1 p_la=4n \
        ngcon=1 nsig_delvto_uo1=0 nsig_delvto_uo2=0 soa=1 swshe=0 swacc=-1 \
        swrg=-1 swrsub=-1 mismatch=1 m=1
    P1 (net09 B inh_vdd inh_vdds) lvtpfet w=275n l=30.00n as=26.95f \
        ad=26.95f nf=(1)*(1) sa=1.8u sb=1.8u sd=96n ptwell=0 par=1 p_la=4n \
        ngcon=1 nsig_delvto_uo1=0 nsig_delvto_uo2=0 soa=1 swshe=0 swacc=-1 \
        swrg=-1 swrsub=-1 mismatch=1 m=1
    P0 (net09 net04 inh_vdd inh_vdds) lvtpfet w=275n l=30.00n as=26.95f \
        ad=26.95f nf=(1)*(1) sa=1.8u sb=1.8u sd=96n ptwell=0 par=1 p_la=4n \
        ngcon=1 nsig_delvto_uo1=0 nsig_delvto_uo2=0 soa=1 swshe=0 swacc=-1 \
        swrg=-1 swrsub=-1 mismatch=1 m=1
    P4 (net08 B net017 inh_vdds) lvtpfet w=275n l=30.00n as=26.95f \
        ad=26.95f nf=(1)*(1) sa=1.8u sb=1.8u sd=96n ptwell=0 par=1 p_la=4n \
        ngcon=1 nsig_delvto_uo1=0 nsig_delvto_uo2=0 soa=1 swshe=0 swacc=-1 \
        swrg=-1 swrsub=-1 mismatch=1 m=1
    P2 (net08 Cin net09 inh_vdds) lvtpfet w=275n l=30.00n as=26.95f \
        ad=26.95f nf=(1)*(1) sa=1.8u sb=1.8u sd=96n ptwell=0 par=1 p_la=4n \
        ngcon=1 nsig_delvto_uo1=0 nsig_delvto_uo2=0 soa=1 swshe=0 swacc=-1 \
        swrg=-1 swrsub=-1 mismatch=1 m=1
    P5 (net04 A inh_vdd inh_vdds) lvtpfet w=550n l=30.00n as=53.9f \
        ad=38.5f nf=(2)*(1) sa=1.8u sb=1.8u sd=96n ptwell=0 par=1 p_la=4n \
        ngcon=1 nsig_delvto_uo1=0 nsig_delvto_uo2=0 soa=1 swshe=0 swacc=0 \
        swrg=0 swrsub=0 mismatch=1 m=1
ends LVT_FAx1_PB4_AFBB
// End of subcircuit definition.

// Library name: power_gating_fine
// Cell name: alu_adder_DW01_add_0
// View name: schematic
subckt alu_adder_DW01_add_0 A\<31\> A\<30\> A\<29\> A\<28\> A\<27\> \
        A\<26\> A\<25\> A\<24\> A\<23\> A\<22\> A\<21\> A\<20\> A\<19\> \
        A\<18\> A\<17\> A\<16\> A\<15\> A\<14\> A\<13\> A\<12\> A\<11\> \
        A\<10\> A\<9\> A\<8\> A\<7\> A\<6\> A\<5\> A\<4\> A\<3\> A\<2\> \
        A\<1\> A\<0\> B\<31\> B\<30\> B\<29\> B\<28\> B\<27\> B\<26\> \
        B\<25\> B\<24\> B\<23\> B\<22\> B\<21\> B\<20\> B\<19\> B\<18\> \
        B\<17\> B\<16\> B\<15\> B\<14\> B\<13\> B\<12\> B\<11\> B\<10\> \
        B\<9\> B\<8\> B\<7\> B\<6\> B\<5\> B\<4\> B\<3\> B\<2\> B\<1\> \
        B\<0\> CI SUM\<31\> SUM\<30\> SUM\<29\> SUM\<28\> SUM\<27\> \
        SUM\<26\> SUM\<25\> SUM\<24\> SUM\<23\> SUM\<22\> SUM\<21\> \
        SUM\<20\> SUM\<19\> SUM\<18\> SUM\<17\> SUM\<16\> SUM\<15\> \
        SUM\<14\> SUM\<13\> SUM\<12\> SUM\<11\> SUM\<10\> SUM\<9\> \
        SUM\<8\> SUM\<7\> SUM\<6\> SUM\<5\> SUM\<4\> SUM\<3\> SUM\<2\> \
        SUM\<1\> SUM\<0\> CO inh_gnd inh_gnds inh_vdd inh_vdds
    U385 (n366 n358 inh_gnd inh_gnds inh_vdd inh_vdds) LVT_invx2_PB4_AFBB
    U390 (n368 n362 inh_gnd inh_gnds inh_vdd inh_vdds) LVT_invx2_PB4_AFBB
    U147 (B\<30\> n141 inh_gnd inh_gnds inh_vdd inh_vdds) \
        LVT_invx2_PB4_AFBB
    U366 (n346 SUM\<30\> inh_gnd inh_gnds inh_vdd inh_vdds) \
        LVT_invx2_PB4_AFBB
    U388 (n367 n361 inh_gnd inh_gnds inh_vdd inh_vdds) LVT_invx2_PB4_AFBB
    U133 (A\<30\> n127 inh_gnd inh_gnds inh_vdd inh_vdds) \
        LVT_invx2_PB4_AFBB
    U383 (n365 n356 inh_gnd inh_gnds inh_vdd inh_vdds) LVT_invx2_PB4_AFBB
    U148 (B\<30\> n142 inh_gnd inh_gnds inh_vdd inh_vdds) \
        LVT_invx2_PB4_AFBB
    U381 (n364 n354 inh_gnd inh_gnds inh_vdd inh_vdds) LVT_invx2_PB4_AFBB
    U143 (n360 n137 inh_gnd inh_gnds inh_vdd inh_vdds) LVT_invx2_PB4_AFBB
    U149 (B\<30\> n143 inh_gnd inh_gnds inh_vdd inh_vdds) \
        LVT_invx2_PB4_AFBB
    U379 (n363 n352 inh_gnd inh_gnds inh_vdd inh_vdds) LVT_invx2_PB4_AFBB
    U365 (n345 carry\<31\> inh_gnd inh_gnds inh_vdd inh_vdds) \
        LVT_invx2_PB4_AFBB
    U368 (B\<30\> n348 inh_gnd inh_gnds inh_vdd inh_vdds) \
        LVT_invx2_PB4_AFBB
    U367 (A\<30\> n347 inh_gnd inh_gnds inh_vdd inh_vdds) \
        LVT_invx2_PB4_AFBB
    U359 (n342 n334 inh_gnd inh_gnds inh_vdd inh_vdds) LVT_invx2_PB4_AFBB
    U364 (n344 n338 inh_gnd inh_gnds inh_vdd inh_vdds) LVT_invx2_PB4_AFBB
    U150 (B\<27\> n144 inh_gnd inh_gnds inh_vdd inh_vdds) \
        LVT_invx2_PB4_AFBB
    U340 (n322 SUM\<27\> inh_gnd inh_gnds inh_vdd inh_vdds) \
        LVT_invx2_PB4_AFBB
    U362 (n343 n337 inh_gnd inh_gnds inh_vdd inh_vdds) LVT_invx2_PB4_AFBB
    U122 (A\<27\> n116 inh_gnd inh_gnds inh_vdd inh_vdds) \
        LVT_invx2_PB4_AFBB
    U357 (n341 n332 inh_gnd inh_gnds inh_vdd inh_vdds) LVT_invx2_PB4_AFBB
    U151 (B\<27\> n145 inh_gnd inh_gnds inh_vdd inh_vdds) \
        LVT_invx2_PB4_AFBB
    U355 (n340 n330 inh_gnd inh_gnds inh_vdd inh_vdds) LVT_invx2_PB4_AFBB
    U138 (n336 n132 inh_gnd inh_gnds inh_vdd inh_vdds) LVT_invx2_PB4_AFBB
    U152 (B\<27\> n146 inh_gnd inh_gnds inh_vdd inh_vdds) \
        LVT_invx2_PB4_AFBB
    U353 (n339 n328 inh_gnd inh_gnds inh_vdd inh_vdds) LVT_invx2_PB4_AFBB
    U339 (n321 carry\<28\> inh_gnd inh_gnds inh_vdd inh_vdds) \
        LVT_invx2_PB4_AFBB
    U342 (B\<27\> n324 inh_gnd inh_gnds inh_vdd inh_vdds) \
        LVT_invx2_PB4_AFBB
    U341 (A\<27\> n323 inh_gnd inh_gnds inh_vdd inh_vdds) \
        LVT_invx2_PB4_AFBB
    U333 (n318 n310 inh_gnd inh_gnds inh_vdd inh_vdds) LVT_invx2_PB4_AFBB
    U338 (n320 n314 inh_gnd inh_gnds inh_vdd inh_vdds) LVT_invx2_PB4_AFBB
    U153 (B\<24\> n147 inh_gnd inh_gnds inh_vdd inh_vdds) \
        LVT_invx2_PB4_AFBB
    U314 (n298 SUM\<24\> inh_gnd inh_gnds inh_vdd inh_vdds) \
        LVT_invx2_PB4_AFBB
    U336 (n319 n313 inh_gnd inh_gnds inh_vdd inh_vdds) LVT_invx2_PB4_AFBB
    U124 (A\<24\> n118 inh_gnd inh_gnds inh_vdd inh_vdds) \
        LVT_invx2_PB4_AFBB
    U331 (n317 n308 inh_gnd inh_gnds inh_vdd inh_vdds) LVT_invx2_PB4_AFBB
    U154 (B\<24\> n148 inh_gnd inh_gnds inh_vdd inh_vdds) \
        LVT_invx2_PB4_AFBB
    U329 (n316 n306 inh_gnd inh_gnds inh_vdd inh_vdds) LVT_invx2_PB4_AFBB
    U137 (n312 n131 inh_gnd inh_gnds inh_vdd inh_vdds) LVT_invx2_PB4_AFBB
    U155 (B\<24\> n149 inh_gnd inh_gnds inh_vdd inh_vdds) \
        LVT_invx2_PB4_AFBB
    U327 (n315 n304 inh_gnd inh_gnds inh_vdd inh_vdds) LVT_invx2_PB4_AFBB
    U313 (n297 carry\<25\> inh_gnd inh_gnds inh_vdd inh_vdds) \
        LVT_invx2_PB4_AFBB
    U316 (B\<24\> n300 inh_gnd inh_gnds inh_vdd inh_vdds) \
        LVT_invx2_PB4_AFBB
    U315 (A\<24\> n299 inh_gnd inh_gnds inh_vdd inh_vdds) \
        LVT_invx2_PB4_AFBB
    U307 (n294 n286 inh_gnd inh_gnds inh_vdd inh_vdds) LVT_invx2_PB4_AFBB
    U312 (n296 n290 inh_gnd inh_gnds inh_vdd inh_vdds) LVT_invx2_PB4_AFBB
    U156 (B\<21\> n150 inh_gnd inh_gnds inh_vdd inh_vdds) \
        LVT_invx2_PB4_AFBB
    U288 (n274 SUM\<21\> inh_gnd inh_gnds inh_vdd inh_vdds) \
        LVT_invx2_PB4_AFBB
    U310 (n295 n289 inh_gnd inh_gnds inh_vdd inh_vdds) LVT_invx2_PB4_AFBB
    U126 (A\<21\> n120 inh_gnd inh_gnds inh_vdd inh_vdds) \
        LVT_invx2_PB4_AFBB
    U305 (n293 n284 inh_gnd inh_gnds inh_vdd inh_vdds) LVT_invx2_PB4_AFBB
    U157 (B\<21\> n151 inh_gnd inh_gnds inh_vdd inh_vdds) \
        LVT_invx2_PB4_AFBB
    U303 (n292 n282 inh_gnd inh_gnds inh_vdd inh_vdds) LVT_invx2_PB4_AFBB
    U136 (n288 n130 inh_gnd inh_gnds inh_vdd inh_vdds) LVT_invx2_PB4_AFBB
    U158 (B\<21\> n152 inh_gnd inh_gnds inh_vdd inh_vdds) \
        LVT_invx2_PB4_AFBB
    U301 (n291 n280 inh_gnd inh_gnds inh_vdd inh_vdds) LVT_invx2_PB4_AFBB
    U2 (n1 n2 inh_gnd inh_gnds inh_vdd inh_vdds) LVT_invx2_PB4_AFBB
    U1 (carry\<1\> n1 inh_gnd inh_gnds inh_vdd inh_vdds) \
        LVT_invx2_PB4_AFBB
    U393 (B\<0\> n370 inh_gnd inh_gnds inh_vdd inh_vdds) \
        LVT_invx2_PB4_AFBB
    U207 (A\<0\> n199 inh_gnd inh_gnds inh_vdd inh_vdds) \
        LVT_invx2_PB4_AFBB
    U392 (A\<0\> n369 inh_gnd inh_gnds inh_vdd inh_vdds) \
        LVT_invx2_PB4_AFBB
    U398 (n374 n371 inh_gnd inh_gnds inh_vdd inh_vdds) LVT_invx2_PB4_AFBB
    U397 (n373 n372 inh_gnd inh_gnds inh_vdd inh_vdds) LVT_invx2_PB4_AFBB
    U195 (B\<0\> n187 inh_gnd inh_gnds inh_vdd inh_vdds) \
        LVT_invx2_PB4_AFBB
    U386 (n349 n360 inh_gnd inh_gnds inh_vdd inh_vdds) LVT_invx2_PB4_AFBB
    U132 (A\<30\> n126 inh_gnd inh_gnds inh_vdd inh_vdds) \
        LVT_invx2_PB4_AFBB
    U360 (n325 n336 inh_gnd inh_gnds inh_vdd inh_vdds) LVT_invx2_PB4_AFBB
    U121 (A\<27\> n115 inh_gnd inh_gnds inh_vdd inh_vdds) \
        LVT_invx2_PB4_AFBB
    U334 (n301 n312 inh_gnd inh_gnds inh_vdd inh_vdds) LVT_invx2_PB4_AFBB
    U123 (A\<24\> n117 inh_gnd inh_gnds inh_vdd inh_vdds) \
        LVT_invx2_PB4_AFBB
    U308 (n277 n288 inh_gnd inh_gnds inh_vdd inh_vdds) LVT_invx2_PB4_AFBB
    U125 (A\<21\> n119 inh_gnd inh_gnds inh_vdd inh_vdds) \
        LVT_invx2_PB4_AFBB
    U196 (n23 n188 inh_gnd inh_gnds inh_vdd inh_vdds) LVT_invx2_PB4_AFBB
    U23 (carry\<30\> n23 inh_gnd inh_gnds inh_vdd inh_vdds) \
        LVT_invx2_PB4_AFBB
    U198 (n189 n190 inh_gnd inh_gnds inh_vdd inh_vdds) LVT_invx2_PB4_AFBB
    U197 (carry\<27\> n189 inh_gnd inh_gnds inh_vdd inh_vdds) \
        LVT_invx2_PB4_AFBB
    U200 (n191 n192 inh_gnd inh_gnds inh_vdd inh_vdds) LVT_invx2_PB4_AFBB
    U199 (carry\<24\> n191 inh_gnd inh_gnds inh_vdd inh_vdds) \
        LVT_invx2_PB4_AFBB
    U202 (n193 n194 inh_gnd inh_gnds inh_vdd inh_vdds) LVT_invx2_PB4_AFBB
    U201 (carry\<21\> n193 inh_gnd inh_gnds inh_vdd inh_vdds) \
        LVT_invx2_PB4_AFBB
    U290 (B\<21\> n276 inh_gnd inh_gnds inh_vdd inh_vdds) \
        LVT_invx2_PB4_AFBB
    U289 (A\<21\> n275 inh_gnd inh_gnds inh_vdd inh_vdds) \
        LVT_invx2_PB4_AFBB
    U287 (n273 carry\<22\> inh_gnd inh_gnds inh_vdd inh_vdds) \
        LVT_invx2_PB4_AFBB
    U281 (n270 n262 inh_gnd inh_gnds inh_vdd inh_vdds) LVT_invx2_PB4_AFBB
    U286 (n272 n266 inh_gnd inh_gnds inh_vdd inh_vdds) LVT_invx2_PB4_AFBB
    U159 (B\<18\> n153 inh_gnd inh_gnds inh_vdd inh_vdds) \
        LVT_invx2_PB4_AFBB
    U262 (n250 SUM\<18\> inh_gnd inh_gnds inh_vdd inh_vdds) \
        LVT_invx2_PB4_AFBB
    U284 (n271 n265 inh_gnd inh_gnds inh_vdd inh_vdds) LVT_invx2_PB4_AFBB
    U128 (A\<18\> n122 inh_gnd inh_gnds inh_vdd inh_vdds) \
        LVT_invx2_PB4_AFBB
    U279 (n269 n260 inh_gnd inh_gnds inh_vdd inh_vdds) LVT_invx2_PB4_AFBB
    U160 (B\<18\> n154 inh_gnd inh_gnds inh_vdd inh_vdds) \
        LVT_invx2_PB4_AFBB
    U277 (n268 n258 inh_gnd inh_gnds inh_vdd inh_vdds) LVT_invx2_PB4_AFBB
    U135 (n264 n129 inh_gnd inh_gnds inh_vdd inh_vdds) LVT_invx2_PB4_AFBB
    U161 (B\<18\> n155 inh_gnd inh_gnds inh_vdd inh_vdds) \
        LVT_invx2_PB4_AFBB
    U275 (n267 n256 inh_gnd inh_gnds inh_vdd inh_vdds) LVT_invx2_PB4_AFBB
    U261 (n249 carry\<19\> inh_gnd inh_gnds inh_vdd inh_vdds) \
        LVT_invx2_PB4_AFBB
    U264 (B\<18\> n252 inh_gnd inh_gnds inh_vdd inh_vdds) \
        LVT_invx2_PB4_AFBB
    U263 (A\<18\> n251 inh_gnd inh_gnds inh_vdd inh_vdds) \
        LVT_invx2_PB4_AFBB
    U255 (n246 n238 inh_gnd inh_gnds inh_vdd inh_vdds) LVT_invx2_PB4_AFBB
    U260 (n248 n242 inh_gnd inh_gnds inh_vdd inh_vdds) LVT_invx2_PB4_AFBB
    U162 (B\<15\> n156 inh_gnd inh_gnds inh_vdd inh_vdds) \
        LVT_invx2_PB4_AFBB
    U236 (n226 SUM\<15\> inh_gnd inh_gnds inh_vdd inh_vdds) \
        LVT_invx2_PB4_AFBB
    U258 (n247 n241 inh_gnd inh_gnds inh_vdd inh_vdds) LVT_invx2_PB4_AFBB
    U130 (A\<15\> n124 inh_gnd inh_gnds inh_vdd inh_vdds) \
        LVT_invx2_PB4_AFBB
    U253 (n245 n236 inh_gnd inh_gnds inh_vdd inh_vdds) LVT_invx2_PB4_AFBB
    U163 (B\<15\> n157 inh_gnd inh_gnds inh_vdd inh_vdds) \
        LVT_invx2_PB4_AFBB
    U251 (n244 n234 inh_gnd inh_gnds inh_vdd inh_vdds) LVT_invx2_PB4_AFBB
    U134 (n240 n128 inh_gnd inh_gnds inh_vdd inh_vdds) LVT_invx2_PB4_AFBB
    U164 (B\<15\> n158 inh_gnd inh_gnds inh_vdd inh_vdds) \
        LVT_invx2_PB4_AFBB
    U249 (n243 n232 inh_gnd inh_gnds inh_vdd inh_vdds) LVT_invx2_PB4_AFBB
    U235 (n225 carry\<16\> inh_gnd inh_gnds inh_vdd inh_vdds) \
        LVT_invx2_PB4_AFBB
    U238 (B\<15\> n228 inh_gnd inh_gnds inh_vdd inh_vdds) \
        LVT_invx2_PB4_AFBB
    U237 (A\<15\> n227 inh_gnd inh_gnds inh_vdd inh_vdds) \
        LVT_invx2_PB4_AFBB
    U228 (n221 n213 inh_gnd inh_gnds inh_vdd inh_vdds) LVT_invx2_PB4_AFBB
    U234 (n224 n217 inh_gnd inh_gnds inh_vdd inh_vdds) LVT_invx2_PB4_AFBB
    U146 (B\<12\> n140 inh_gnd inh_gnds inh_vdd inh_vdds) \
        LVT_invx2_PB4_AFBB
    U209 (n201 SUM\<12\> inh_gnd inh_gnds inh_vdd inh_vdds) \
        LVT_invx2_PB4_AFBB
    U232 (n223 n216 inh_gnd inh_gnds inh_vdd inh_vdds) LVT_invx2_PB4_AFBB
    U211 (A\<12\> n203 inh_gnd inh_gnds inh_vdd inh_vdds) \
        LVT_invx2_PB4_AFBB
    U226 (n220 n211 inh_gnd inh_gnds inh_vdd inh_vdds) LVT_invx2_PB4_AFBB
    U144 (B\<12\> n138 inh_gnd inh_gnds inh_vdd inh_vdds) \
        LVT_invx2_PB4_AFBB
    U224 (n219 n209 inh_gnd inh_gnds inh_vdd inh_vdds) LVT_invx2_PB4_AFBB
    U131 (n215 n125 inh_gnd inh_gnds inh_vdd inh_vdds) LVT_invx2_PB4_AFBB
    U212 (B\<12\> n204 inh_gnd inh_gnds inh_vdd inh_vdds) \
        LVT_invx2_PB4_AFBB
    U222 (n218 n207 inh_gnd inh_gnds inh_vdd inh_vdds) LVT_invx2_PB4_AFBB
    U208 (n200 carry\<13\> inh_gnd inh_gnds inh_vdd inh_vdds) \
        LVT_invx2_PB4_AFBB
    U167 (A\<12\> n161 inh_gnd inh_gnds inh_vdd inh_vdds) \
        LVT_invx2_PB4_AFBB
    U145 (B\<12\> n139 inh_gnd inh_gnds inh_vdd inh_vdds) \
        LVT_invx2_PB4_AFBB
    U189 (n184 n176 inh_gnd inh_gnds inh_vdd inh_vdds) LVT_invx2_PB4_AFBB
    U194 (n186 n180 inh_gnd inh_gnds inh_vdd inh_vdds) LVT_invx2_PB4_AFBB
    U140 (B\<11\> n134 inh_gnd inh_gnds inh_vdd inh_vdds) \
        LVT_invx2_PB4_AFBB
    U170 (n164 SUM\<11\> inh_gnd inh_gnds inh_vdd inh_vdds) \
        LVT_invx2_PB4_AFBB
    U192 (n185 n179 inh_gnd inh_gnds inh_vdd inh_vdds) LVT_invx2_PB4_AFBB
    U120 (A\<11\> n114 inh_gnd inh_gnds inh_vdd inh_vdds) \
        LVT_invx2_PB4_AFBB
    U187 (n183 n174 inh_gnd inh_gnds inh_vdd inh_vdds) LVT_invx2_PB4_AFBB
    U141 (B\<11\> n135 inh_gnd inh_gnds inh_vdd inh_vdds) \
        LVT_invx2_PB4_AFBB
    U185 (n182 n172 inh_gnd inh_gnds inh_vdd inh_vdds) LVT_invx2_PB4_AFBB
    U139 (n178 n133 inh_gnd inh_gnds inh_vdd inh_vdds) LVT_invx2_PB4_AFBB
    U142 (B\<11\> n136 inh_gnd inh_gnds inh_vdd inh_vdds) \
        LVT_invx2_PB4_AFBB
    U183 (n181 n170 inh_gnd inh_gnds inh_vdd inh_vdds) LVT_invx2_PB4_AFBB
    U169 (n163 carry\<12\> inh_gnd inh_gnds inh_vdd inh_vdds) \
        LVT_invx2_PB4_AFBB
    U172 (B\<11\> n166 inh_gnd inh_gnds inh_vdd inh_vdds) \
        LVT_invx2_PB4_AFBB
    U171 (A\<11\> n165 inh_gnd inh_gnds inh_vdd inh_vdds) \
        LVT_invx2_PB4_AFBB
    U282 (n253 n264 inh_gnd inh_gnds inh_vdd inh_vdds) LVT_invx2_PB4_AFBB
    U127 (A\<18\> n121 inh_gnd inh_gnds inh_vdd inh_vdds) \
        LVT_invx2_PB4_AFBB
    U256 (n229 n240 inh_gnd inh_gnds inh_vdd inh_vdds) LVT_invx2_PB4_AFBB
    U129 (A\<15\> n123 inh_gnd inh_gnds inh_vdd inh_vdds) \
        LVT_invx2_PB4_AFBB
    U230 (n222 n215 inh_gnd inh_gnds inh_vdd inh_vdds) LVT_invx2_PB4_AFBB
    U168 (A\<12\> n162 inh_gnd inh_gnds inh_vdd inh_vdds) \
        LVT_invx2_PB4_AFBB
    U190 (n167 n178 inh_gnd inh_gnds inh_vdd inh_vdds) LVT_invx2_PB4_AFBB
    U119 (A\<11\> n113 inh_gnd inh_gnds inh_vdd inh_vdds) \
        LVT_invx2_PB4_AFBB
    U113 (n110 n102 inh_gnd inh_gnds inh_vdd inh_vdds) LVT_invx2_PB4_AFBB
    U204 (n195 n196 inh_gnd inh_gnds inh_vdd inh_vdds) LVT_invx2_PB4_AFBB
    U203 (carry\<18\> n195 inh_gnd inh_gnds inh_vdd inh_vdds) \
        LVT_invx2_PB4_AFBB
    U206 (n197 n198 inh_gnd inh_gnds inh_vdd inh_vdds) LVT_invx2_PB4_AFBB
    U205 (carry\<15\> n197 inh_gnd inh_gnds inh_vdd inh_vdds) \
        LVT_invx2_PB4_AFBB
    U210 (carry\<12\> n202 inh_gnd inh_gnds inh_vdd inh_vdds) \
        LVT_invx2_PB4_AFBB
    U166 (n159 n160 inh_gnd inh_gnds inh_vdd inh_vdds) LVT_invx2_PB4_AFBB
    U165 (carry\<11\> n159 inh_gnd inh_gnds inh_vdd inh_vdds) \
        LVT_invx2_PB4_AFBB
    U96 (A\<9\> n92 inh_gnd inh_gnds inh_vdd inh_vdds) LVT_invx2_PB4_AFBB
    U111 (n109 n100 inh_gnd inh_gnds inh_vdd inh_vdds) LVT_invx2_PB4_AFBB
    U116 (n111 n105 inh_gnd inh_gnds inh_vdd inh_vdds) LVT_invx2_PB4_AFBB
    U94 (n90 SUM\<9\> inh_gnd inh_gnds inh_vdd inh_vdds) \
        LVT_invx2_PB4_AFBB
    U118 (n112 n106 inh_gnd inh_gnds inh_vdd inh_vdds) LVT_invx2_PB4_AFBB
    U95 (n87 n91 inh_gnd inh_gnds inh_vdd inh_vdds) LVT_invx2_PB4_AFBB
    U29 (B\<9\> n29 inh_gnd inh_gnds inh_vdd inh_vdds) LVT_invx2_PB4_AFBB
    U15 (B\<9\> n15 inh_gnd inh_gnds inh_vdd inh_vdds) LVT_invx2_PB4_AFBB
    U109 (n108 n98 inh_gnd inh_gnds inh_vdd inh_vdds) LVT_invx2_PB4_AFBB
    U24 (n104 n24 inh_gnd inh_gnds inh_vdd inh_vdds) LVT_invx2_PB4_AFBB
    U30 (B\<9\> n30 inh_gnd inh_gnds inh_vdd inh_vdds) LVT_invx2_PB4_AFBB
    U107 (n107 n96 inh_gnd inh_gnds inh_vdd inh_vdds) LVT_invx2_PB4_AFBB
    U93 (n89 carry\<10\> inh_gnd inh_gnds inh_vdd inh_vdds) \
        LVT_invx2_PB4_AFBB
    U19 (A\<9\> n19 inh_gnd inh_gnds inh_vdd inh_vdds) LVT_invx2_PB4_AFBB
    U16 (B\<9\> n16 inh_gnd inh_gnds inh_vdd inh_vdds) LVT_invx2_PB4_AFBB
    U84 (n83 n75 inh_gnd inh_gnds inh_vdd inh_vdds) LVT_invx2_PB4_AFBB
    U66 (n36 n64 inh_gnd inh_gnds inh_vdd inh_vdds) LVT_invx2_PB4_AFBB
    U89 (n85 n79 inh_gnd inh_gnds inh_vdd inh_vdds) LVT_invx2_PB4_AFBB
    U27 (B\<6\> n27 inh_gnd inh_gnds inh_vdd inh_vdds) LVT_invx2_PB4_AFBB
    U65 (n63 SUM\<6\> inh_gnd inh_gnds inh_vdd inh_vdds) \
        LVT_invx2_PB4_AFBB
    U87 (n84 n78 inh_gnd inh_gnds inh_vdd inh_vdds) LVT_invx2_PB4_AFBB
    U67 (A\<6\> n65 inh_gnd inh_gnds inh_vdd inh_vdds) LVT_invx2_PB4_AFBB
    U82 (n82 n73 inh_gnd inh_gnds inh_vdd inh_vdds) LVT_invx2_PB4_AFBB
    U13 (B\<6\> n13 inh_gnd inh_gnds inh_vdd inh_vdds) LVT_invx2_PB4_AFBB